# Title
# Created by GaussView 6.0.16
#

#
#

@<TRIPOS>MOLECULE
Myr
33 35
SMALL
NO_CHARGES


@<TRIPOS>ATOM
1 C1   -55.1370     8.5360   -66.3470 C
2 O2   -53.7350     6.8050   -65.3290 O
3 C3   -52.9010     6.7900   -66.4200 C
4 O4   -52.2760     7.6300   -68.5410 O
5 C5   -54.8470     7.6140   -65.3110 C
6 O6   -56.6770    10.2090   -67.2380 O
7 C7   -51.8580     5.7580   -66.3870 C
8 O8   -54.2640     9.4100   -68.4180 O
9 C9   -53.0820     7.6240   -67.4690 C
10 O10   -57.6750     8.1790   -63.0120 O
11 C11   -54.1770     8.6050   -67.4890 C
12 O12   -48.9090     4.9790   -64.3430 O
13 C13   -56.3220     9.3200   -66.2610 C
14 O14   -50.6770     2.9050   -68.3710 O
15 C15   -55.7090     7.4970   -64.2070 C
16 O16   -48.6770     3.0220   -66.3980 O
17 C17   -51.7750     4.7720   -67.3900 C
18 C18   -50.9150     5.7780   -65.3450 C
19 C19   -56.8680     8.2860   -64.1110 C
20 C20   -57.1780     9.1880   -65.1460 C
21 C21   -49.8460     4.8610   -65.3330 C
22 C22   -50.7220     3.8380   -67.3760 C
23 C23   -49.7370     3.8890   -66.3610 C
24 H24   -55.4680     6.8010   -63.4150 H
25 H25   -52.5060     4.7410   -68.1850 H
26 H26   -50.9830     6.5400   -64.5800 H
27 H27   -58.0760     9.7830   -65.0760 H
28 H28   -52.5870     8.3250   -69.1050 H
29 H29   -57.5410    10.5780   -67.1290 H
30 H30   -57.2990     7.5720   -62.3550 H
31 H31   -48.9530     5.8460   -63.9260 H
32 H32   -49.8080     2.5780   -68.6120 H
33 H33   -48.6970     2.4290   -67.1400 H
@<TRIPOS>BOND
1 1 5 Ar
2 1 11 1
3 1 13 Ar
4 2 3 1
5 2 5 1
6 3 7 1
7 3 9 2
8 4 9 Ar
9 4 28 1
10 5 15 Ar
11 6 13 1
12 6 29 1
13 7 17 Ar
14 7 18 Ar
15 8 11 2
16 9 11 1
17 10 19 1
18 10 30 1
19 12 21 1
20 12 31 1
21 13 20 Ar
22 14 22 1
23 14 32 1
24 15 19 Ar
25 15 24 1
26 16 23 1
27 16 33 1
28 17 22 Ar
29 17 25 1
30 18 21 Ar
31 18 26 1
32 19 20 Ar
33 20 27 1
34 21 23 Ar
35 22 23 Ar
