# Title
# Created by GaussView 6.0.16
#

#
#

@<TRIPOS>MOLECULE
Gen
30 32
SMALL
NO_CHARGES


@<TRIPOS>ATOM
1 C1    57.5820    61.1890    66.5220 C
2 O2    56.8890    63.4950    66.6490 O
3 C3    55.5590    61.7880    67.7620 C
4 O4    58.5010    59.0240    66.2970 O
5 C5    57.6380    62.4930    66.0670 C
6 O6    56.6340    59.6270    67.9000 O
7 C7    56.5420    60.7810    67.4250 C
8 O8    60.5300    62.3700    63.8140 O
9 C9    54.4990    61.6080    68.7620 C
10 O10    51.3450    61.2600    71.5140 O
11 C11    58.4370    60.2860    65.9690 C
12 C12    55.7290    63.1400    67.2730 C
13 C13    58.4730    62.8650    65.0580 C
14 C14    59.4420    60.7660    65.1490 C
15 C15    59.5050    62.0290    64.6220 C
16 C16    53.1480    61.4330    68.3570 C
17 C17    54.7250    61.7650    70.1180 C
18 C18    52.0880    61.2860    69.3100 C
19 C19    53.6360    61.5580    71.1310 C
20 C20    52.3280    61.3220    70.6460 C
21 H21    55.1780    64.0360    67.5500 H
22 H22    58.5510    63.8990    64.7030 H
23 H23    60.1770    60.1400    64.6440 H
24 H24    52.9430    61.5790    67.2920 H
25 H25    55.7220    62.0180    70.5010 H
26 H26    51.0410    61.3090    69.0330 H
27 H27    53.7920    61.6480    72.2010 H
28 H28    57.9140    59.1200    67.0640 H
29 H29    60.3320    63.3200    63.6840 H
30 H30    51.6700    61.7970    72.2500 H
@<TRIPOS>BOND
1 1 11 2
2 1 7 Ar
3 1 5 2
4 2 5 1
5 2 12 1
6 3 7 Ar
7 3 9 1
8 3 12 1
9 4 11 Ar
10 4 28 1
11 5 13 2
12 6 7 2
13 8 15 1
14 8 29 1
15 9 16 Ar
16 9 17 2
17 10 20 Ar
18 10 30 1
19 11 14 2
20 12 21 1
21 13 15 Ar
22 13 22 1
23 14 15 2
24 14 23 1
25 16 18 Ar
26 16 24 1
27 17 19 1
28 17 25 1
29 18 20 2
30 18 26 1
31 19 20 Ar
32 19 27 1
