# Title
# Created by GaussView 6.0.16
#

#
#

@<TRIPOS>MOLECULE
Myr
33 35
SMALL
NO_CHARGES


@<TRIPOS>ATOM
1 C1    56.5460    44.3170    75.2900 C
2 O2    54.7070    44.1190    73.6920 O
3 C3    53.7950    43.8330    74.6560 C
4 O4    53.3140    43.3150    76.9990 O
5 C5    56.0650    44.3460    73.9600 C
6 O6    58.3350    44.7320    76.7560 O
7 C7    52.4230    43.7630    74.2460 C
8 O8    55.9940    43.9960    77.5490 O
9 C9    54.1840    43.6210    76.0140 C
10 O10    59.0350    45.0700    72.2030 O
11 C11    55.5980    43.9790    76.3920 C
12 O12    49.5880    45.9750    73.6880 O
13 C13    57.8750    44.6200    75.5530 C
14 O14    49.8990    41.2900    73.1830 O
15 C15    56.9280    44.4770    72.9100 C
16 O16    48.3650    43.7460    72.8490 O
17 C17    51.8150    42.5340    73.8770 C
18 C18    51.6530    44.9760    74.1500 C
19 C19    58.2570    44.6810    73.2150 C
20 C20    58.7310    44.8390    74.5420 C
21 C21    50.3380    44.9190    73.7120 C
22 C22    50.4510    42.5240    73.4770 C
23 C23    49.6660    43.6930    73.3960 C
24 H24    56.6520    44.4710    71.8550 H
25 H25    52.4160    41.6390    73.8520 H
26 H26    52.1480    45.9150    74.4280 H
27 H27    59.7350    45.1700    74.7340 H
28 H28    53.8090    43.0470    77.7900 H
29 H29    57.5150    44.4610    77.2250 H
30 H30    59.8760    45.3170    72.6210 H
31 H31    48.7390    45.6160    73.3690 H
32 H32    49.0860    41.4940    72.6970 H
33 H33    48.1310    42.9200    72.3730 H
@<TRIPOS>BOND
1 1 11 1
2 1 5 Ar
3 1 13 Ar
4 2 3 1
5 2 5 1
6 3 7 Ar
7 3 9 Ar
8 4 9 1
9 4 28 1
10 5 15 2
11 6 13 Ar
12 6 29 1
13 7 17 Ar
14 7 18 Ar
15 8 11 2
16 9 11 1
17 10 19 Ar
18 10 30 1
19 12 21 Ar
20 12 31 1
21 13 20 2
22 14 22 1
23 14 32 1
24 15 24 1
25 15 19 2
26 16 23 1
27 16 33 1
28 17 22 Ar
29 17 25 1
30 18 21 Ar
31 18 26 1
32 19 20 Ar
33 20 27 1
34 21 23 Ar
35 22 23 Ar
