# Title
# Created by GaussView 6.0.16
#

#
#

@<TRIPOS>MOLECULE
Chr
29 31
SMALL
NO_CHARGES


@<TRIPOS>ATOM
1 C1    59.2500    47.2400    78.3950 C
2 O2    61.6330    47.3600    78.1050 O
3 C3    60.3670    47.2610    77.5960 C
4 O4    56.9800    47.0020    78.6470 O
5 C5    61.7950    47.3950    79.4700 C
6 O6    58.4360    47.5210    80.5460 O
7 C7    59.4120    47.4790    79.8240 C
8 O8    58.9170    47.0600    74.3040 O
9 C9    63.1320    47.3750    79.9990 C
10 C10    58.0400    47.1330    77.8370 C
11 C11    60.6990    47.6220    80.3460 C
12 C12    60.2110    47.1630    76.2370 C
13 C13    58.9880    47.1640    75.6280 C
14 C14    57.9060    47.0860    76.4410 C
15 C15    63.6480    48.2640    80.8780 C
16 C16    64.0720    46.3930    79.5670 C
17 C17    64.9420    48.1350    81.4590 C
18 C18    65.3590    46.2680    80.0030 C
19 C19    65.7690    47.1340    81.0890 C
20 H20    60.7910    47.7070    81.4210 H
21 H21    61.0600    47.1850    75.5790 H
22 H22    56.9440    46.8160    75.9900 H
23 H23    62.8910    49.0190    81.0840 H
24 H24    63.7110    45.6360    78.8810 H
25 H25    65.2180    48.8190    82.2740 H
26 H26    66.0730    45.5270    79.6120 H
27 H27    66.7380    47.0020    81.5460 H
28 H28    57.4390    47.1760    79.4910 H
29 H29    59.3420    47.8400    73.9050 H
@<TRIPOS>BOND
1 1 7 1
2 1 10 2
3 1 3 2
4 2 3 1
5 2 5 1
6 3 12 2
7 4 10 Ar
8 4 28 1
9 5 9 Ar
10 5 11 Ar
11 6 7 2
12 7 11 Ar
13 8 13 Ar
14 8 29 1
15 9 15 2
16 9 16 Ar
17 10 14 Ar
18 11 20 1
19 12 13 2
20 12 21 1
21 13 14 2
22 14 22 1
23 15 17 Ar
24 15 23 1
25 16 18 2
26 16 24 1
27 17 19 2
28 17 25 1
29 18 19 1
30 18 26 1
31 19 27 1
