# Title
# Created by GaussView 6.0.16
#

#
#

@<TRIPOS>MOLECULE
Gen
30 32
SMALL
NO_CHARGES


@<TRIPOS>ATOM
1 C1   -44.7410    10.9110   -52.4080 C
2 O2   -43.4290    12.8640   -51.7890 O
3 C3   -43.4750    12.2290   -54.1160 C
4 O4   -46.0470     8.9000   -52.8990 O
5 C5   -44.1350    11.7400   -51.4310 C
6 O6   -45.2030    10.7420   -54.7330 O
7 C7   -44.5370    11.2520   -53.8330 C
8 O8   -45.3950    10.1160   -48.3550 O
9 C9   -42.9620    12.3850   -55.4800 C
10 O10   -41.4320    12.7260   -59.3490 O
11 C11   -45.4840     9.7740   -52.0080 C
12 C12   -43.0270    12.9900   -53.0950 C
13 C13   -44.2900    11.4460   -50.0610 C
14 C14   -45.6580     9.5260   -50.6410 C
15 C15   -45.0990    10.3620   -49.6650 C
16 C16   -42.3780    11.2730   -56.1180 C
17 C17   -43.0270    13.6200   -56.1500 C
18 C18   -41.8800    11.3830   -57.4250 C
19 C19   -42.4690    13.7390   -57.4350 C
20 C20   -41.9290    12.6170   -58.0880 C
21 H21   -42.2590    13.7430   -53.2000 H
22 H22   -43.8450    12.1020   -49.3280 H
23 H23   -46.2320     8.6780   -50.3300 H
24 H24   -42.3040    10.3310   -55.6020 H
25 H25   -43.4600    14.4860   -55.6700 H
26 H26   -41.4450    10.5260   -57.9050 H
27 H27   -42.4490    14.7010   -57.9190 H
28 H28   -45.9100     9.1600   -53.8040 H
29 H29   -44.8410    10.5730   -47.7360 H
30 H30   -40.8860    13.5030   -59.4280 H
@<TRIPOS>BOND
1 1 5 Ar
2 1 7 1
3 1 11 Ar
4 2 5 1
5 2 12 1
6 3 7 1
7 3 9 1
8 3 12 2
9 4 11 1
10 4 28 1
11 5 13 Ar
12 6 7 2
13 8 15 1
14 8 29 1
15 9 16 Ar
16 9 17 Ar
17 10 20 1
18 10 30 1
19 11 14 Ar
20 12 21 1
21 13 15 Ar
22 13 22 1
23 14 15 Ar
24 14 23 1
25 16 18 Ar
26 16 24 1
27 17 19 Ar
28 17 25 1
29 18 20 Ar
30 18 26 1
31 19 20 Ar
32 19 27 1
