# Title
# Created by GaussView 6.0.16
#

#
#

@<TRIPOS>MOLECULE
Chr
29 31
SMALL
NO_CHARGES


@<TRIPOS>ATOM
1 C1   -55.4180     6.3080   -66.9060 C
2 O2   -53.8040     5.3720   -65.3330 O
3 C3   -54.9610     6.0680   -65.5870 C
4 O4   -57.1300     7.2680   -68.3570 O
5 C5   -52.9630     5.0030   -66.3580 C
6 O6   -54.9430     5.8620   -69.2080 O
7 C7   -54.5920     5.7900   -68.0270 C
8 O8   -57.6710     7.6140   -63.6250 O
9 C9   -51.7230     4.3170   -65.9420 C
10 C10   -56.6240     7.0310   -67.1070 C
11 C11   -53.3200     5.1660   -67.6500 C
12 C12   -55.7100     6.5250   -64.4850 C
13 C13   -56.9050     7.2380   -64.6880 C
14 C14   -57.3430     7.5110   -65.9960 C
15 C15   -51.2770     4.4690   -64.6110 C
16 C16   -50.9980     3.4800   -66.8250 C
17 C17   -50.1430     3.7710   -64.1590 C
18 C18   -49.8650     2.7810   -66.3680 C
19 C19   -49.4370     2.9250   -65.0350 C
20 H20   -52.6790     4.8420   -68.4530 H
21 H21   -55.3680     6.3140   -63.4800 H
22 H22   -58.2570     8.0620   -66.1470 H
23 H23   -51.8070     5.1050   -63.9170 H
24 H24   -51.3110     3.3190   -67.8450 H
25 H25   -49.8210     3.8820   -63.1340 H
26 H26   -49.3430     2.1180   -67.0420 H
27 H27   -48.5750     2.3800   -64.6810 H
28 H28   -56.5530     6.9190   -69.0270 H
29 H29   -57.3430     7.2930   -62.7610 H
@<TRIPOS>BOND
1 1 3 Ar
2 1 7 1
3 1 10 Ar
4 2 3 1
5 2 5 1
6 3 12 Ar
7 4 10 1
8 4 28 1
9 5 9 1
10 5 11 2
11 6 7 2
12 7 11 1
13 8 13 1
14 8 29 1
15 9 15 Ar
16 9 16 Ar
17 10 14 Ar
18 11 20 1
19 12 13 Ar
20 12 21 1
21 13 14 Ar
22 14 22 1
23 15 17 Ar
24 15 23 1
25 16 18 Ar
26 16 24 1
27 17 19 Ar
28 17 25 1
29 18 19 Ar
30 18 26 1
31 19 27 1
